[JUNCTIONS]
1 139.550075533758
2 139.674545755967
3 70.412161471182
4 70.431354667699
5 71.587708179615
6 71.578810344143
7 71.590403979987
8 71.537943494541
9 71.407980633294
10 71.363259475876
11 66.817996393212
12 66.821461924723
13 66.096077115625
14 66.070374289317
15 65.365081042632
16 65.338733334190
17 68.176194772968
18 68.155061478451
19 66.930021490839
20 66.972104216492
21 65.342814282098
22 65.307151056155
23 69.113300473912
24 69.115939638127
25 67.805056504230
26 66.005494901513
27 66.205717014178
28 58.721006928419
29 58.695200243419
30 58.774415264052
31 59.134320105028
32 59.113716085675
33 59.169465832374
34 59.152279687339
35 59.115049067830
36 59.062758159433
37 64.395274979027
38 66.813537367373
39 66.771130162977
40 66.167196451670
41 66.152381275191
42 66.100000000000
43 66.100000000000
44 64.695838327424
45 64.683026898643
46 66.000000000000
47 66.000000000000
48 66.000000000000
49 66.000000000000
50 66.000000000000
51 66.000000000000
52 70.460509784661
53 70.462476329565
54 119.312441888346
55 119.334530146033
56 121.100000000000
57 121.100000000000
58 121.100000000000
59 121.100000000000
60 121.100000000000
61 121.100000000000
62 105.349250224908
63 105.365144170556
64 92.440379604938
65 92.511267520524
66 89.666594583129
67 89.649216135501
68 89.677812969100
69 84.128223533818
70 89.666501092112
71 89.659689658918
72 73.800000000000
73 73.800000000000
74 73.800000000000
75 73.800000000000
76 73.800000000000
77 73.064487363234
78 75.800000000000
79 75.770504446381
80 73.800000000000
81 69.481378804320
82 68.059406845565
83 68.054087912334
84 71.899955338615
85 71.923059351386
86 70.471501649528
87 83.900000000000
88 83.900000000000
89 68.236820157002
90 68.209693423383
91 67.300000000000
92 67.300000000000
93 69.144434738032
94 69.306812675765
95 71.700000000000
96 71.700000000000
97 65.445186313507
98 65.372676014010
99 65.022627486524
100 71.466077945204
101 71.468397207705
102 74.077496313367
103 74.162930558731
104 119.006348980875
105 118.950998632716
106 119.606066880123
107 119.567523039032
108 139.804841840590
109 139.886203006883
110 139.475221670281
111 139.537763639832
112 119.302386058593
113 119.384651922563
114 119.376939252883
115 115.592243669017
116 120.343863376443
117 120.325128342200
118 130.740769421235
119 130.769312379211
120 122.696289482154
121 108.260901339778
122 112.948713101403
123 112.860964329182
124 119.370188534879
125 119.340452505065
126 105.256342088542
127 105.253150433616
128 105.371063706581
129 105.345751092605
130 114.747375926285
131 114.767184286602
132 68.190029382838
133 68.195260629403
134 65.694384450098
135 65.659094425969
136 139.248814490122
137 139.377169790340
138 139.675605377424
139 139.757055153499
140 83.900000000000
141 83.900000000000
142 118.753521585036
143 118.694598729876
144 89.648479368157
145 89.655244332972
146 71.588681492482
147 71.582222652510
148 75.452914747528
149 75.483351242174
150 75.424080731349
151 75.447553360137
152 139.687131520332
153 139.729436936903
154 65.241018357613
155 65.227936688414
156 65.256620696643
157 65.234404374724
158 59.688094339410
159 59.605388788569
160 68.400000000000
161 68.400000000000
162 68.366321264608
163 68.396298692424
164 68.359471597094
165 68.339606482968
166 68.404847378743
167 68.399347513756
168 68.468331243992
169 68.447595137137
170 113.386640956402
171 113.381446809415
172 113.318457767721
173 113.329048034521
174 89.845405627908
175 89.699754707283
176 79.078626110677
177 66.411314457999
178 70.242666658033
179 74.057743026013
180 72.998689564995
181 71.353460000008
182 59.000000000000
183 59.000000000000
184 59.000000000000
185 59.000000000000
186 64.680480000004
187 121.100000000000
188 73.800000000000
189 76.775747589993
190 76.760704488000
191 86.788750000019
192 75.520240665065
193 75.719618132024
194 139.138413139970
195 138.812651789976
196 67.800000000000
197 115.596399999997
198 65.607883921977
199 139.389361345103
200 78.122775049993
201 78.053314235007
202 90.980799999963
203 108.289175339972
204 89.671273753010
205 84.217598495986
206 69.472762700004
207 73.800000000000
208 73.055980000012
209 72.371140747990
210 72.329763895991
211 113.117725908065
212 113.178413795088
213 74.070850014005
214 59.000000000000
215 80.673519999981
216 80.670799999982
217 66.000000000000
218 102.042407280055
219 66.000000000000
220 66.000000000000
221 70.455389366013
222 71.596020000000
223 66.127219999973
224 64.188300000038
225 59.194289999977
226 66.527400924929
227 59.451460039945
228 66.100000000000
229 66.997779051999
230 89.695586471999
231 71.785300000012
232 73.172736676011
233 105.326216329996
234 74.977171399998
235 79.101401811148
236 66.817779999999
237 65.378846450990
238 66.200000000000
239 68.196419693996
240 57.940671000002
241 58.772152591968
242 59.139743152013
243 66.000000000000
244 119.336372905997
245 121.100000000000
246 89.682121711009
247 73.800000000000
248 75.450092600076
249 71.869539619998
250 70.482785206882
251 67.300000000000
252 69.449559999928
253 71.465772144001
254 119.058049845963
255 122.570079999957
256 114.718370000059
257 65.697858522025
258 139.765079999948
259 65.226359999981
260 119.262619649341
261 119.269006975982
262 68.400000000000
263 68.314170000013
264 68.392980056006
265 113.368560000062
266 113.380710069211
267 113.335560000017
268 89.697349158001
269 79.093295898401
270 67.710000000000
271 119.330000000000
272 129.010000000000
Log05 70.440000000000
302 70.993540000003
303 70.021334976011
305 74.575000000000
287 66.141260000002
289 66.200000000000
288 65.645759999994
275 64.251900000032
Log04 62.690000000000
274 59.000000000000
282 60.459804806001
276 59.000000000000
279 65.127201277996
285 66.338750000000
283 64.657520000003
295 66.000000000000
321 121.100000000000
Log02 90.030000000000
319 91.144210112022
313 91.963664363990
316 96.474150000066
318 89.223139556118
326 98.588639325110
301 73.051359999981
299 74.996900909914
298 71.906427512002
281 68.067449999973
Log03 89.020000000000
293 66.746094656001
307 69.758409939914
308 118.886979999989
317 117.871050000004
311 121.300000000000
325 119.366804751996
324 119.395851839999
Log01 127.150000000000
322 119.232213267990
323 117.396619999986
320 105.253905493970
312 121.100000000000
315 114.000000000000
300 76.995599999987
292 83.900000000000
291 65.587922224009
309 83.900000000000
296 69.112079999931
294 67.300000000000
304 73.800000000000
280 67.800000000000
273 60.221343059999
290 65.457194928005
286 60.473525678001
297 58.617766719993
Log06 121.200000000000
306 113.314390079990
284 68.100000000000
314 73.167100000009
277 69.000000000000
278 68.919619999994
327 102.341088181107
310 109.301010890103
328 57.620000000000
329 79.094227935037
[RESERVOIRS]
Tank01 140.840000 CAUSEYWELL_DSR_NO714796
[PIPES]
177.178.1 177 178 139.498062 76.199997 0.120000 0.000000
179.180.1 179 180 25.519407 80.000000 0.600000 0.000000
181.328.1 181 328 455.227661 38.099998 0.300000 0.000000
182.183.1 182 183 7.156722 150.000000 0.300000 0.000000
184.185.1 184 185 10.524713 80.000000 0.600000 0.000000
186.283.1 186 283 1.449527 101.599998 0.060000 0.000000
311.187.1 311 187 59.844757 76.199997 6.000000 0.000000
188.189.1 188 189 296.399597 146.000000 0.300000 0.000000
189.190.1 189 190 4.578404 146.000000 0.300000 0.000000
191.Log03.1 191 Log03 38.462879 76.199997 0.120000 0.000000
192.193.1 192 193 17.139139 25.400000 0.010000 0.000000
193.300.1 193 300 146.059433 101.599998 6.000000 0.000000
Tank01.109.1 Tank01 109 1.000000 152.399994 6.000000 0.000000
194.195.1 194 195 2.109345 19.049999 6.000000 0.000000
142.308.1 142 308 2.269642 100.000000 0.060000 0.000000
196.280.1 196 280 1.018407 101.599998 3.500000 0.000000
115.197.1 115 197 0.100000 101.599998 6.000000 0.000000
198.291.1 198 291 0.534958 90.000000 0.060000 0.000000
137.199.1 137 199 0.100000 152.399994 0.300000 0.000000
Log01.272.1 Log01 272 2.094039 101.599998 6.000000 0.000000
200.201.1 200 201 1.584216 152.399994 0.300000 0.000000
202.319.1 202 319 2.806562 152.399994 0.300000 0.000000
203.121.1 203 121 0.502767 152.399994 0.300000 0.000000
204.68.1 204 68 0.262314 152.399994 0.300000 0.000000
205.69.1 205 69 0.588978 152.399994 0.300000 0.000000
206.81.1 206 81 0.537827 50.799999 0.120000 0.000000
207.80.1 207 80 0.574133 50.799999 0.120000 0.000000
208.77.1 208 77 0.310655 146.000000 0.300000 0.000000
209.210.1 209 210 1.476646 160.000000 0.120000 0.000000
211.212.1 211 212 0.694005 160.000000 0.030000 0.000000
72.188.1 72 188 0.342499 152.399994 6.000000 0.000000
213.179.1 213 179 0.216749 80.000000 0.600000 0.000000
214.184.1 214 184 0.139943 80.000000 0.600000 0.000000
215.216.1 215 216 0.280071 146.000000 0.300000 0.000000
297.217.1 297 217 691.238953 50.900002 0.010000 0.000000
218.327.1 218 327 1.828197 76.199997 0.100000 0.000000
219.220.1 219 220 32.059010 25.799999 0.010000 0.000000
221.Log05.1 221 Log05 153.276443 76.199997 0.120000 0.000000
Log05.222.1 Log05 222 228.133118 76.199997 0.120000 0.000000
303.305.1 303 305 691.028320 76.199997 0.120000 0.000000
305.213.1 305 213 54.650715 76.199997 0.120000 0.000000
289.287.1 289 287 96.072952 76.199997 0.120000 0.000000
223.288.1 223 288 39.403561 76.199997 0.120000 0.000000
224.275.1 224 275 1.382037 101.599998 6.000000 0.000000
275.37.1 275 37 3.099265 101.599998 6.000000 0.000000
225.Log04.1 225 Log04 132.413071 101.599998 6.000000 0.000000
Log04.226.1 Log04 226 138.898361 101.599998 6.000000 0.000000
183.274.1 183 274 0.808913 76.199997 0.060000 0.000000
274.273.1 274 273 151.252716 76.199997 0.060000 0.000000
227.282.1 227 282 29.929708 76.199997 0.120000 0.000000
185.276.1 185 276 84.655037 76.199997 0.300000 0.000000
276.182.1 276 182 88.948723 76.199997 0.300000 0.000000
228.279.1 228 279 55.815750 101.599998 6.000000 0.000000
229.285.1 229 285 66.320633 101.599998 6.000000 0.000000
Log02.230.1 Log02 230 10.491254 152.399994 0.030000 0.000000
218.326.1 218 326 51.685879 76.199997 0.100000 0.000000
189.301.1 189 301 346.927795 146.000000 0.300000 0.000000
299.192.1 299 192 6.503265 146.000000 0.300000 0.000000
210.298.1 210 298 23.009647 146.000000 0.300000 0.000000
298.231.1 298 231 7.805549 146.000000 0.300000 0.000000
307.232.1 307 232 127.800529 76.199997 0.090000 0.000000
322.323.1 322 323 71.623070 152.399994 0.300000 0.000000
323.212.1 323 212 114.152054 152.399994 0.300000 0.000000
233.320.1 233 320 2.432395 152.399994 0.030000 0.000000
312.187.1 312 187 53.512234 100.000000 0.060000 0.000000
232.314.1 232 314 135.196671 78.699997 0.010000 0.000000
314.234.1 314 234 66.917717 78.699997 0.010000 0.000000
176.329.1 176 329 0.705812 90.000000 6.000000 0.000000
329.235.1 329 235 2.419236 90.000000 6.000000 0.000000
178.3.1 178 3 29.791176 80.000000 0.600000 0.000000
4.221.1 4 221 1.332525 80.000000 0.600000 0.000000
302.6.1 302 6 32.265270 80.000000 0.600000 0.000000
5.222.1 5 222 0.934295 80.000000 0.600000 0.000000
180.7.1 180 7 78.040672 76.199997 0.120000 0.000000
10.181.1 10 181 0.219124 76.199997 0.120000 0.000000
229.12.1 229 12 31.554678 101.599998 0.060000 0.000000
11.236.1 11 236 0.100000 101.599998 0.060000 0.000000
223.13.1 223 13 1.177236 101.599998 6.000000 0.000000
14.237.1 14 237 63.371864 101.599998 6.000000 0.000000
237.15.1 237 15 0.918089 101.599998 6.000000 0.000000
16.238.1 16 238 28.642977 101.599998 6.000000 0.000000
17.239.1 17 239 0.855737 101.599998 6.000000 0.000000
236.19.1 236 19 2.670063 101.599998 6.000000 0.000000
20.18.1 20 18 92.955315 101.599998 6.000000 0.000000
287.22.1 287 22 36.673489 76.199997 0.120000 0.000000
21.237.1 21 237 0.946854 76.199997 0.120000 0.000000
226.270.1 226 270 7.125778 101.599998 6.000000 0.000000
25.23.1 25 23 39.958614 101.599998 6.000000 0.000000
226.27.1 226 27 1.487833 101.599998 6.000000 0.000000
26.224.1 26 224 114.808266 101.599998 6.000000 0.000000
29.240.1 29 240 68.691223 76.199997 0.120000 0.000000
241.30.1 241 30 0.100000 76.199997 0.120000 0.000000
282.32.1 282 32 168.625778 76.199997 0.120000 0.000000
31.242.1 31 242 0.278682 76.199997 0.120000 0.000000
242.34.1 242 34 0.668799 76.199997 0.120000 0.000000
33.214.1 33 214 64.814049 76.199997 0.120000 0.000000
240.36.1 240 36 30.199198 80.000000 0.600000 0.000000
35.242.1 35 242 0.459821 80.000000 0.600000 0.000000
279.39.1 279 39 66.829643 101.599998 6.000000 0.000000
38.236.1 38 236 0.100000 101.599998 6.000000 0.000000
285.40.1 285 40 11.643451 101.599998 6.000000 0.000000
41.223.1 41 223 1.688965 101.599998 6.000000 0.000000
228.42.1 228 42 0.962202 101.599998 0.060000 0.000000
43.186.1 43 186 78.589951 101.599998 0.060000 0.000000
238.44.1 238 44 23.158203 101.599998 0.060000 0.000000
45.186.1 45 186 0.198570 101.599998 0.060000 0.000000
243.46.1 243 46 0.595518 80.000000 0.600000 0.000000
47.217.1 47 217 35.151566 80.000000 0.600000 0.000000
295.48.1 295 48 1.665655 76.199997 0.120000 0.000000
49.243.1 49 243 2.607892 76.199997 0.120000 0.000000
243.50.1 243 50 0.607753 76.199997 0.120000 0.000000
51.52.1 51 52 984.812317 76.199997 0.120000 0.000000
53.221.1 53 221 5.235031 76.199997 0.120000 0.000000
55.244.1 55 244 0.100000 101.599998 0.300000 0.000000
245.56.1 245 56 28.375219 101.599998 0.300000 0.000000
57.54.1 57 54 41.870476 101.599998 0.300000 0.000000
245.59.1 245 59 7.201030 101.599998 0.300000 0.000000
58.321.1 58 321 0.814918 101.599998 0.300000 0.000000
245.61.1 245 61 1.124633 76.199997 6.000000 0.000000
60.311.1 60 311 77.415916 76.199997 6.000000 0.000000
233.62.1 233 62 1.038584 152.399994 0.030000 0.000000
63.316.1 63 316 84.467705 152.399994 0.030000 0.000000
316.64.1 316 64 61.244514 152.399994 0.030000 0.000000
65.313.1 65 313 28.814756 152.399994 0.030000 0.000000
318.67.1 318 67 112.446625 152.399994 0.300000 0.000000
326.71.1 326 71 107.212029 76.199997 0.100000 0.000000
70.246.1 70 246 1.424009 76.199997 0.100000 0.000000
247.73.1 247 73 0.100000 101.599998 0.300000 0.000000
74.304.1 74 304 0.490700 101.599998 0.300000 0.000000
247.76.1 247 76 1.731117 146.000000 0.300000 0.000000
75.188.1 75 188 2.899979 146.000000 0.300000 0.000000
248.79.1 248 79 4.361604 50.799999 0.120000 0.000000
82.281.1 82 281 1.507990 50.799999 0.120000 0.000000
249.84.1 249 84 1.804831 76.199997 0.120000 0.000000
250.86.1 250 86 0.100000 76.199997 0.120000 0.000000
191.88.1 191 88 90.975922 76.199997 0.120000 0.000000
87.292.1 87 292 0.892054 76.199997 0.120000 0.000000
90.239.1 90 239 0.525587 101.599998 3.500000 0.000000
251.91.1 251 91 0.332726 101.599998 3.500000 0.000000
92.294.1 92 294 0.317108 101.599998 3.500000 0.000000
252.94.1 252 94 0.878849 101.599998 3.500000 0.000000
93.296.1 93 296 0.199314 101.599998 3.500000 0.000000
231.96.1 231 96 14.269153 101.599998 3.500000 0.000000
177.98.1 177 98 55.433193 38.099998 0.300000 0.000000
97.219.1 97 219 173.532272 38.099998 0.300000 0.000000
220.99.1 220 99 188.087631 38.099998 0.300000 0.000000
253.100.1 253 100 0.881394 76.199997 0.090000 0.000000
101.307.1 101 307 183.162415 76.199997 0.090000 0.000000
234.102.1 234 102 326.425354 76.199997 0.090000 0.000000
317.105.1 317 105 49.255859 76.199997 0.120000 0.000000
104.254.1 104 254 0.974375 76.199997 0.120000 0.000000
254.107.1 254 107 20.762327 100.000000 0.060000 0.000000
106.312.1 106 312 33.939583 100.000000 0.060000 0.000000
1.111.1 1 111 0.100000 152.399994 0.300000 0.000000
324.112.1 324 112 34.784866 152.399994 0.300000 0.000000
271.244.1 271 244 0.120104 152.399994 0.300000 0.000000
325.114.1 325 114 2.190118 152.399994 0.300000 0.000000
113.324.1 113 324 1.144585 152.399994 0.300000 0.000000
255.120.1 255 120 0.936126 152.399994 0.300000 0.000000
122.211.1 122 211 1.930373 152.399994 0.030000 0.000000
244.125.1 244 125 0.116774 152.399994 0.300000 0.000000
124.322.1 124 322 7.953456 152.399994 0.300000 0.000000
320.127.1 320 127 0.496392 152.399994 0.030000 0.000000
126.123.1 126 123 94.104561 152.399994 0.030000 0.000000
233.129.1 233 129 1.375263 101.599998 0.120000 0.000000
315.131.1 315 131 78.693321 75.000000 0.120000 0.000000
130.256.1 130 256 1.320363 75.000000 0.120000 0.000000
133.239.1 133 239 0.322095 101.599998 6.000000 0.000000
257.134.1 257 134 0.100000 101.599998 3.500000 0.000000
135.198.1 135 198 1.405204 101.599998 3.500000 0.000000
258.139.1 258 139 0.100000 152.399994 0.300000 0.000000
138.136.1 138 136 4.018051 152.399994 0.300000 0.000000
215.141.1 215 141 207.781219 152.399994 0.300000 0.000000
140.309.1 140 309 1.316169 152.399994 0.300000 0.000000
256.143.1 256 143 60.653419 101.599998 0.120000 0.000000
145.Log02.1 145 Log02 0.487025 152.399994 0.030000 0.000000
222.146.1 222 146 1.135467 76.199997 0.120000 0.000000
147.303.1 147 303 131.427338 76.199997 0.120000 0.000000
248.148.1 248 148 0.100000 146.000000 0.300000 0.000000
149.192.1 149 192 1.761109 146.000000 0.300000 0.000000
248.151.1 248 151 0.100000 146.000000 0.300000 0.000000
150.209.1 150 209 297.169037 146.000000 0.300000 0.000000
152.2.1 152 2 0.100000 152.399994 0.300000 0.000000
288.154.1 288 154 29.258865 76.199997 0.120000 0.000000
259.157.1 259 157 0.356715 78.699997 0.010000 0.000000
156.290.1 156 290 158.839432 78.699997 0.010000 0.000000
227.159.1 227 159 1.754897 50.900002 0.010000 0.000000
158.286.1 158 286 206.311020 50.900002 0.010000 0.000000
Log06.260.1 Log06 260 159.754440 50.900002 0.010000 0.000000
260.261.1 260 261 1.151662 50.900002 0.010000 0.000000
284.160.1 284 160 70.532593 78.699997 0.010000 0.000000
161.262.1 161 262 1.924542 78.699997 0.010000 0.000000
263.165.1 263 165 1.280336 78.699997 0.010000 0.000000
278.166.1 278 166 89.658417 78.699997 0.010000 0.000000
167.264.1 167 264 1.057836 78.699997 0.010000 0.000000
168.277.1 168 277 149.206024 78.699997 0.010000 0.000000
170.306.1 170 306 53.818489 50.900002 0.010000 0.000000
265.266.1 265 266 1.640640 50.900002 0.010000 0.000000
266.171.1 266 171 0.100000 50.900002 0.010000 0.000000
265.172.1 265 172 53.000427 78.699997 0.010000 0.000000
173.267.1 173 267 0.602064 78.699997 0.010000 0.000000
310.174.1 310 174 102.621109 90.000000 0.060000 0.000000
175.268.1 175 268 0.920592 90.000000 0.060000 0.000000
313.202.1 313 202 76.852150 152.399994 0.030000 0.000000
202.144.1 202 144 90.778671 152.399994 0.030000 0.000000
164.262.1 164 262 82.864502 78.699997 0.010000 0.000000
262.163.1 262 163 2.565311 78.699997 0.010000 0.000000
293.257.1 293 257 229.169006 101.599998 3.500000 0.000000
118.203.1 118 203 488.900574 152.399994 0.300000 0.000000
203.117.1 203 117 340.802490 152.399994 0.300000 0.000000
301.208.1 301 208 0.916039 146.000000 0.300000 0.000000
208.299.1 208 299 200.659271 146.000000 0.300000 0.000000
254.261.1 254 261 53.090294 100.000000 0.060000 0.000000
261.308.1 261 308 8.996128 100.000000 0.060000 0.000000
66.204.1 66 204 0.289264 152.399994 0.300000 0.000000
204.246.1 204 246 0.773369 152.399994 0.300000 0.000000
257.263.1 257 263 213.296478 101.599998 3.500000 0.000000
263.89.1 263 89 80.823997 101.599998 3.500000 0.000000
309.205.1 309 205 27.714911 152.399994 0.300000 0.000000
205.318.1 205 318 224.709259 152.399994 0.300000 0.000000
85.250.1 85 250 209.145462 76.199997 0.120000 0.000000
250.191.1 250 191 894.999023 76.199997 0.120000 0.000000
24.196.1 24 196 120.816200 101.599998 6.000000 0.000000
196.132.1 196 132 46.277466 101.599998 6.000000 0.000000
272.119.1 272 119 43.876980 152.399994 0.300000 0.000000
249.206.1 249 206 197.277802 50.799999 0.120000 0.000000
206.83.1 206 83 356.405426 50.799999 0.120000 0.000000
8.253.1 8 253 1.425133 76.199997 0.120000 0.000000
253.9.1 253 9 1.254870 76.199997 0.120000 0.000000
230.268.1 230 268 0.639131 152.399994 0.300000 0.000000
268.246.1 268 246 2.295033 152.399994 0.300000 0.000000
155.259.1 155 259 0.100000 76.199997 0.120000 0.000000
259.289.1 259 289 53.086948 76.199997 0.120000 0.000000
128.267.1 128 267 139.034653 101.599998 0.120000 0.000000
267.256.1 267 256 31.531054 101.599998 0.120000 0.000000
227.295.1 227 295 887.069519 76.199997 0.120000 0.000000
194.255.1 194 255 114.675148 152.399994 0.300000 0.000000
255.272.1 255 272 91.872627 152.399994 0.300000 0.000000
103.235.1 103 235 585.101196 76.199997 0.090000 0.000000
235.269.1 235 269 0.764143 76.199997 0.090000 0.000000
95.252.1 95 252 436.663330 101.599998 3.500000 0.000000
162.264.1 162 264 60.481701 78.699997 0.010000 0.000000
264.169.1 264 169 2.761559 78.699997 0.010000 0.000000
108.258.1 108 258 0.489821 152.399994 0.300000 0.000000
258.153.1 258 153 0.442871 152.399994 0.300000 0.000000
252.251.1 252 251 261.213928 101.599998 3.500000 0.000000
251.293.1 251 293 130.128311 101.599998 3.500000 0.000000
225.241.1 225 241 13.314291 76.199997 0.120000 0.000000
241.28.1 241 28 1.803336 76.199997 0.120000 0.000000
78.207.1 78 207 93.478241 50.799999 0.120000 0.000000
207.249.1 207 249 574.519104 50.799999 0.120000 0.000000
110.199.1 110 199 0.540987 152.399994 0.300000 0.000000
199.194.1 199 194 1.634047 152.399994 0.300000 0.000000
116.197.1 116 197 330.378662 152.399994 0.300000 0.000000
197.325.1 197 325 177.441956 152.399994 0.300000 0.000000
216.201.1 216 201 379.707428 146.000000 0.300000 0.000000
201.247.1 201 247 345.201752 146.000000 0.300000 0.000000
2.1.1 2 1 1.000000 80.000000 0.300000 0.000000
[VALVES]
3.4.1 3 4 80.000000 TCV 0.000100 0.000100
5.6.1 5 6 80.000000 TCV 0.000100 0.000100
7.8.1 7 8 76.199997 TCV 0.000100 0.000100
9.10.1 9 10 76.199997 TCV 0.000100 0.000100
11.12.1 11 12 101.599998 TCV 0.000100 0.000100
13.14.1 13 14 101.599998 TCV 0.000100 0.000100
15.16.1 15 16 101.599998 TCV 0.000100 0.000100
17.18.1 17 18 101.599998 TCV 0.000100 0.000100
19.20.1 19 20 101.599998 TCV 0.000100 0.000100
21.22.1 21 22 76.199997 TCV 0.000100 0.000100
23.24.1 23 24 101.599998 TCV 0.000100 0.000100
25.270.1 25 270 101.599998 TCV 0.000100 0.000100
26.27.1 26 27 101.599998 TCV 0.000100 0.000100
28.29.1 28 29 76.199997 TCV 0.000100 0.000100
31.32.1 31 32 76.199997 TCV 0.000100 0.000100
33.34.1 33 34 76.199997 TCV 0.000100 0.000100
35.36.1 35 36 80.000000 TCV 0.000100 0.000100
38.39.1 38 39 101.599998 TCV 0.000100 0.000100
40.41.1 40 41 101.599998 TCV 0.000100 0.000100
42.43.1 42 43 101.599998 TCV 0.000100 0.000100
44.45.1 44 45 101.599998 TCV 0.000100 0.000100
46.47.1 46 47 80.000000 TCV 0.000100 0.000100
48.49.1 48 49 76.199997 TCV 0.000100 0.000100
50.51.1 50 51 76.199997 TCV 0.000100 0.000100
52.53.1 52 53 76.199997 TCV 0.000100 0.000100
54.55.1 54 55 101.599998 TCV 0.000100 0.000100
56.57.1 56 57 101.599998 TCV 0.000100 0.000100
58.59.1 58 59 101.599998 TCV 0.000100 0.000100
60.61.1 60 61 76.199997 TCV 0.000100 0.000100
62.63.1 62 63 152.399994 TCV 0.000100 0.000100
64.65.1 64 65 152.399994 TCV 0.000100 0.000100
66.67.1 66 67 152.399994 TCV 1731.240038 0.000100
70.71.1 70 71 76.199997 TCV 0.000100 0.000100
73.74.1 73 74 101.599998 TCV 0.000100 0.000100
75.76.1 75 76 152.399994 TCV 0.000100 0.000100
78.79.1 78 79 50.799999 TCV 1200.000000 0.000100
82.83.1 82 83 50.799999 TCV 0.000100 0.000100
84.85.1 84 85 76.199997 TCV 0.000100 0.000100
87.88.1 87 88 76.199997 TCV 0.000100 0.000100
89.90.1 89 90 101.599998 TCV 0.000100 0.000100
91.92.1 91 92 101.599998 TCV 0.000100 0.000100
93.94.1 93 94 101.599998 TCV 0.000100 0.000100
95.96.1 95 96 160.000000 TCV 0.000100 0.000100
97.98.1 97 98 38.099998 TCV 0.000100 0.000100
100.101.1 100 101 76.199997 TCV 0.000100 0.000100
102.103.1 102 103 76.199997 TCV 0.000100 0.000100
104.105.1 104 105 76.199997 TCV 0.000100 0.000100
106.107.1 106 107 100.000000 TCV 0.000100 0.000100
108.109.1 108 109 152.399994 TCV 150.000000 0.000100
110.111.1 110 111 152.399994 TCV 0.000100 0.000100
271.112.1 271 112 152.399994 TCV 0.000100 0.000100
113.114.1 113 114 152.399994 TCV 0.000100 0.000100
116.117.1 116 117 152.399994 TCV 0.000100 0.000100
118.119.1 118 119 152.399994 TCV 0.000100 0.000100
122.123.1 122 123 152.399994 TCV 0.000100 0.000100
124.125.1 124 125 152.399994 TCV 0.000100 0.000100
126.127.1 126 127 152.399994 TCV 0.000100 0.000100
128.129.1 128 129 101.599998 TCV 0.000100 0.000100
130.131.1 130 131 75.000000 TCV 0.000100 0.000100
132.133.1 132 133 101.599998 TCV 0.000100 0.000100
134.135.1 134 135 101.599998 TCV 0.000100 0.000100
136.137.1 136 137 152.399994 TCV 1000000000000.000000 0.000100
138.139.1 138 139 152.399994 TCV 0.000100 0.000100
140.141.1 140 141 152.399994 TCV 0.000100 0.000100
142.143.1 142 143 101.599998 TCV 0.000100 0.000100
144.145.1 144 145 152.399994 TCV 0.000100 0.000100
146.147.1 146 147 76.199997 TCV 0.000100 0.000100
148.149.1 148 149 152.399994 TCV 0.000100 0.000100
150.151.1 150 151 152.399994 TCV 0.000100 0.000100
152.153.1 152 153 152.399994 TCV 0.000100 0.000100
154.155.1 154 155 80.000000 TCV 0.000100 0.000100
156.157.1 156 157 80.000000 TCV 0.000100 0.000100
158.159.1 158 159 80.000000 TCV 0.000100 0.000100
160.161.1 160 161 80.000000 TCV 0.000100 0.000100
162.163.1 162 163 80.000000 TCV 0.000100 0.000100
164.165.1 164 165 80.000000 TCV 0.000100 0.000100
166.167.1 166 167 80.000000 TCV 0.000100 0.000100
168.169.1 168 169 80.000000 TCV 0.000100 0.000100
170.171.1 170 171 50.900002 TCV 0.000100 0.000100
172.173.1 172 173 80.000000 TCV 0.000100 0.000100
174.175.1 174 175 80.000000 TCV 0.000100 0.000100
[DEMANDS]
14 0.009590 Leakage
14 0.009348 DMAProfile
16 0.006393 Leakage
16 0.006232 DMAProfile
22 0.006393 Leakage
22 0.006232 DMAProfile
25 0.003197 Leakage
25 0.001060 10_Hour
26 0.003197 Leakage
26 0.003116 DMAProfile
29 0.003197 Leakage
29 0.003116 DMAProfile
39 0.009590 Leakage
39 0.009348 DMAProfile
40 0.003197 Leakage
40 0.003116 DMAProfile
43 0.006393 Leakage
43 0.006232 DMAProfile
44 0.003197 Leakage
44 0.003116 DMAProfile
52 0.003197 Leakage
52 0.003116 DMAProfile
54 0.003197 Leakage
54 0.003116 DMAProfile
57 0.009590 Leakage
57 0.009348 DMAProfile
60 0.012787 Leakage
60 0.012463 DMAProfile
63 0.028770 Leakage
63 0.008326 24_Hour
63 0.003056 10_Hour
63 0.021811 DMAProfile
64 0.009590 Leakage
64 0.009348 DMAProfile
65 0.006393 Leakage
65 0.006232 DMAProfile
67 0.003197 Leakage
67 0.003116 DMAProfile
71 0.003197 Leakage
71 0.003116 DMAProfile
78 0.003197 Leakage
78 0.003116 DMAProfile
80 0.003197 Leakage
80 0.003116 DMAProfile
88 0.006393 Leakage
88 0.006232 DMAProfile
89 0.003197 Leakage
89 0.011474 16_Hour
99 0.015983 Leakage
99 0.015579 DMAProfile
103 0.015983 Leakage
103 0.015579 DMAProfile
105 0.009590 Leakage
105 0.009348 DMAProfile
106 0.012787 Leakage
106 0.012463 DMAProfile
107 0.003197 Leakage
107 0.003116 DMAProfile
116 0.009590 Leakage
116 0.009348 DMAProfile
117 0.006393 Leakage
117 0.010486 Agricultural
117 0.003116 DMAProfile
123 0.041556 Leakage
123 0.040506 DMAProfile
126 0.022377 Leakage
126 0.021811 DMAProfile
128 0.003197 Leakage
128 0.003116 DMAProfile
131 0.003197 Leakage
131 0.003116 DMAProfile
142 0.006393 Leakage
142 0.006232 DMAProfile
143 0.003197 Leakage
143 0.003116 DMAProfile
144 0.009590 Leakage
144 0.009348 DMAProfile
146 0.003197 Leakage
146 0.003116 DMAProfile
147 0.003197 Leakage
147 0.003116 DMAProfile
150 0.006393 Leakage
150 0.006232 DMAProfile
154 0.006393 Leakage
154 0.006232 DMAProfile
156 0.031966 Leakage
156 0.031159 DMAProfile
158 0.012787 Leakage
158 0.012463 DMAProfile
160 0.006393 Leakage
160 0.006232 DMAProfile
162 0.006393 Leakage
162 0.006232 DMAProfile
164 0.003197 Leakage
164 0.003116 DMAProfile
166 0.003197 Leakage
166 0.003116 DMAProfile
168 0.012787 Leakage
168 0.012463 DMAProfile
170 0.006393 Leakage
170 0.006232 DMAProfile
174 0.006393 Leakage
174 0.006232 DMAProfile
186 0.009590 Leakage
186 0.009348 DMAProfile
187 0.031966 Leakage
187 0.031159 DMAProfile
188 0.003197 Leakage
188 0.003116 DMAProfile
190 0.009590 Leakage
190 0.016087 Agricultural
190 0.003116 DMAProfile
191 0.025573 Leakage
191 0.024927 DMAProfile
196 0.003197 Leakage
196 0.003116 DMAProfile
201 0.009590 Leakage
201 0.009348 DMAProfile
202 0.041556 Leakage
202 0.040506 DMAProfile
208 0.003197 Leakage
208 0.003116 DMAProfile
212 0.038360 Leakage
212 0.037390 DMAProfile
216 0.003197 Leakage
216 0.003116 DMAProfile
217 0.006393 Leakage
217 0.006232 DMAProfile
218 0.009590 Leakage
218 0.009348 DMAProfile
219 0.003197 Leakage
219 0.003116 DMAProfile
220 0.006393 Leakage
220 0.006232 DMAProfile
223 0.006393 Leakage
223 0.006232 DMAProfile
224 0.003197 Leakage
224 0.003116 DMAProfile
225 0.025573 Leakage
225 0.024927 DMAProfile
226 0.003197 Leakage
226 0.003116 DMAProfile
227 0.003197 Leakage
227 0.003116 DMAProfile
228 0.009590 Leakage
228 0.009348 DMAProfile
229 0.019180 Leakage
229 0.018695 DMAProfile
231 0.003197 Leakage
231 0.003116 DMAProfile
237 0.006393 Leakage
237 0.006232 DMAProfile
238 0.003197 Leakage
238 0.003116 DMAProfile
245 0.003197 Leakage
245 0.003116 DMAProfile
247 0.019180 Leakage
247 0.018695 DMAProfile
249 0.012787 Leakage
249 0.012463 DMAProfile
251 0.003197 Leakage
251 0.003116 DMAProfile
252 0.012787 Leakage
252 0.031221 Agricultural
252 0.009348 DMAProfile
254 0.012787 Leakage
254 0.012463 DMAProfile
255 0.003197 Leakage
255 0.003116 DMAProfile
256 0.006393 Leakage
256 0.006232 DMAProfile
257 0.009590 Leakage
257 0.009348 DMAProfile
259 0.006393 Leakage
259 0.006232 DMAProfile
260 0.012787 Leakage
260 0.012463 DMAProfile
261 0.015983 Leakage
261 0.015579 DMAProfile
262 0.009590 Leakage
262 0.009348 DMAProfile
264 0.006393 Leakage
264 0.006232 DMAProfile
265 0.003197 Leakage
265 0.003116 DMAProfile
267 0.022377 Leakage
267 0.001754 10_Hour
267 0.018695 DMAProfile
273 0.035163 Leakage
273 0.057752 10_Hour
273 0.031159 DMAProfile
274 0.009590 Leakage
274 0.009348 DMAProfile
277 0.015983 Leakage
277 0.015579 DMAProfile
278 0.015983 Leakage
278 0.015579 DMAProfile
279 0.035163 Leakage
279 0.000087 10_Hour
279 0.028043 DMAProfile
280 0.003197 Leakage
280 0.003116 DMAProfile
281 0.015983 Leakage
281 0.031205 16_Hour
281 0.012463 DMAProfile
283 0.003197 Leakage
283 0.003116 DMAProfile
284 0.012787 Leakage
284 0.012463 DMAProfile
285 0.019180 Leakage
285 0.018695 DMAProfile
286 0.009590 Leakage
286 0.009348 DMAProfile
287 0.035163 Leakage
287 0.034274 DMAProfile
288 0.015983 Leakage
288 0.015579 DMAProfile
289 0.035163 Leakage
289 0.034274 DMAProfile
290 0.031966 Leakage
290 0.031159 DMAProfile
291 0.003197 Leakage